resultados/Relatorios/107barra/107barra-report.txt
April 10, 2024


relatorio do sistema 107barra

solucao do fluxo de potencia via metodo do fluxo de potencia direto (Canizares, 1993)

opcoes de controle ativadas: Nenhum controle ativo!

opcoes de relatorio ativadas: RBAR 



vv relatorio de convergencia vv

 * * * * SISTEMA CONVERGENTE * * * * 

Ponto de Maximo Carregamento: 0.076603
Iteracoes: 9

vv relatorio de barras vv area 1 vv

|          BARRA           |         TENSAO       |        GERACAO      |         CARGA       |   SHUNT  |
| NUM |     NOME     |  T  |    MOD    |    ANG   |    MW    |   MVAr   |    MW    |   MVAr   |    MVAr  |
----------------------------------------------------------------------------------------------------------
| 12  | LCBARRET-4GR |  1  |   1.000   |  -34.47  | 300.000  | -86.735  |  0.000   |  0.000   |  0.000   |
----------------------------------------------------------------------------------------------------------
| 16  | FURNAS---5GR |  1  |   1.000   |  -39.79  | 800.000  | 133.945  |  0.000   |  0.000   |  0.000   |
----------------------------------------------------------------------------------------------------------
| 18  | ITUMBIAR-6GR |  2  |   1.020   |  -24.00  | 2066.833 |  10.895  |  0.000   |  0.000   |  0.000   |
----------------------------------------------------------------------------------------------------------
| 20  | MARIMBON-5GR |  1  |   1.010   |  -31.48  | 900.000  | -64.032  |  0.000   |  0.000   |  0.000   |
----------------------------------------------------------------------------------------------------------
| 22  | M.MOR.A--3GR |  1  |   1.000   |  -30.79  | 150.000  |  3.282   |  0.000   |  0.000   |  0.000   |
----------------------------------------------------------------------------------------------------------
| 35  | CORUMBA--2GR |  1  |   1.000   |  -32.51  | 200.000  |  10.832  |  0.000   |  0.000   |  0.000   |
----------------------------------------------------------------------------------------------------------
| 48  | IBIUNA---4CS |  1  |   1.000   |  -63.54  |  0.000   | -169.220 |  0.000   |  0.000   |  0.000   |
----------------------------------------------------------------------------------------------------------
| 86  | IBIUNA---345 |  0  |   1.012   |  -63.54  |  0.000   |  0.000   |  71.056  |  1.292   |  0.000   |
----------------------------------------------------------------------------------------------------------
| 100 | MARIMBON-500 |  0  |   1.024   |  -37.79  |  -0.000  |  0.000   |  0.000   |  0.000   |  0.000   |
----------------------------------------------------------------------------------------------------------

|          BARRA           |         TENSAO       |        GERACAO      |         CARGA       |   SHUNT  |
| NUM |     NOME     |  T  |    MOD    |    ANG   |    MW    |   MVAr   |    MW    |   MVAr   |    MVAr  |
----------------------------------------------------------------------------------------------------------
| 101 | ARARAQUA-500 |  0  |   1.000   |  -49.74  |  -0.000  |  0.000   |  0.000   |  0.000   | -199.981 |
----------------------------------------------------------------------------------------------------------
| 102 | POCOS----500 |  0  |   0.973   |  -59.51  |  -0.000  |  0.000   |  0.000   |  0.000   | -94.706  |
----------------------------------------------------------------------------------------------------------
| 103 | CAMPINAS-500 |  0  |   1.002   |  -61.82  |  -0.000  |  0.000   |  0.000   |  0.000   |  0.000   |
----------------------------------------------------------------------------------------------------------
| 104 | C.PAULIS-500 |  0  |   0.953   |  -71.55  |  0.000   |  0.000   | 979.709  | 253.002  |  0.000   |
----------------------------------------------------------------------------------------------------------
| 106 | ADRIANO--500 |  0  |   0.936   |  -72.59  |  -0.000  |  -0.000  |  0.000   |  0.000   | -87.629  |
----------------------------------------------------------------------------------------------------------
| 120 | P.CALDAS-345 |  0  |   0.978   |  -58.19  |  -0.000  |  0.000   | 193.789  |  96.894  |  0.000   |
----------------------------------------------------------------------------------------------------------
| 122 | IBIUNA---500 |  0  |   1.032   |  -63.09  |  0.000   |  0.000   | 215.321  |  40.911  |  0.000   |
----------------------------------------------------------------------------------------------------------
| 123 | CAMPINAS-345 |  0  |   0.961   |  -64.83  |  0.000   |  0.000   | 484.471  | 188.406  |  0.000   |
----------------------------------------------------------------------------------------------------------
| 126 | GUARULHOS345 |  0  |   1.004   |  -63.60  |  0.000   |  0.000   | 312.215  | 102.277  |  0.000   |
----------------------------------------------------------------------------------------------------------
| 131 | M.MORAES-345 |  0  |   1.006   |  -38.36  |  -0.000  |  0.000   |  0.000   |  0.000   |  0.000   |
----------------------------------------------------------------------------------------------------------

|          BARRA           |         TENSAO       |        GERACAO      |         CARGA       |   SHUNT  |
| NUM |     NOME     |  T  |    MOD    |    ANG   |    MW    |   MVAr   |    MW    |   MVAr   |    MVAr  |
----------------------------------------------------------------------------------------------------------
| 134 | LBARRETO-345 |  0  |   1.011   |  -36.74  |  -0.000  |  0.000   |  0.000   |  0.000   |  0.000   |
----------------------------------------------------------------------------------------------------------
| 136 | FURNAS---345 |  0  |   0.987   |  -46.94  |  -0.000  |  0.000   |  58.137  |  24.762  |  0.000   |
----------------------------------------------------------------------------------------------------------
| 138 | ITUTINGA-345 |  0  |   0.943   |  -60.77  |  -0.000  |  0.000   |  77.515  |  36.605  |  0.000   |
----------------------------------------------------------------------------------------------------------
| 140 | ADRIANO--345 |  0  |   0.905   |  -73.93  |  0.000   |  0.000   | 753.622  | 269.151  |  0.000   |
----------------------------------------------------------------------------------------------------------
| 210 | ITUMBIARA500 |  0  |   1.028   |  -31.55  |  -0.000  |  0.000   |  0.000   |  0.000   |  0.000   |
----------------------------------------------------------------------------------------------------------
| 213 | MARIMBON-345 |  0  |   1.023   |  -37.84  |  0.000   |  0.000   | 100.124  |  41.988  |  0.000   |
----------------------------------------------------------------------------------------------------------
| 216 | PCOLOMBIA345 |  0  |   1.028   |  -36.59  |  0.000   |  0.000   |  57.060  |  26.915  |  0.000   |
----------------------------------------------------------------------------------------------------------
| 217 | ITUMBIARA345 |  0  |   1.014   |  -37.82  |  0.000   |  0.000   | 391.884  |  62.443  |  0.000   |
----------------------------------------------------------------------------------------------------------
| 218 | BANDEIRA-345 |  0  |   0.979   |  -46.89  |  0.000   |  0.000   | 645.962  | 215.321  |  0.000   |
----------------------------------------------------------------------------------------------------------
| 219 | B.SUL----345 |  0  |   0.987   |  -45.57  |  -0.000  |  0.000   |  0.000   |  0.000   |  0.000   |
----------------------------------------------------------------------------------------------------------

|          BARRA           |         TENSAO       |        GERACAO      |         CARGA       |   SHUNT  |
| NUM |     NOME     |  T  |    MOD    |    ANG   |    MW    |   MVAr   |    MW    |   MVAr   |    MVAr  |
----------------------------------------------------------------------------------------------------------
| 220 | CORUMBA--345 |  0  |   1.024   |  -37.67  |  -0.000  |  0.000   |  0.000   |  0.000   |  0.000   |
----------------------------------------------------------------------------------------------------------
| 225 | ITUMBIARA230 |  0  |   0.944   |  -41.18  |  -0.000  |  0.000   |  0.000   |  0.000   |  0.000   |
----------------------------------------------------------------------------------------------------------
| 228 | B.SUL----230 |  0  |   0.973   |  -47.56  |  0.000   |  0.000   |  92.588  |  36.605  |  0.000   |
----------------------------------------------------------------------------------------------------------
| 233 | SAMAMBAI-500 |  0  |   1.001   |  -42.40  |  -0.000  |  0.000   |  0.000   |  0.000   |  0.000   |
----------------------------------------------------------------------------------------------------------
| 234 | SAMAMBAI-345 |  0  |   0.986   |  -45.68  |  0.000   |  0.000   | 1076.603 | 376.811  |  0.000   |
----------------------------------------------------------------------------------------------------------
| 300 | EMBORCAC-3GR |  1  |   1.020   |  -24.55  | 700.000  | -97.314  |  0.000   |  0.000   |  0.000   |
----------------------------------------------------------------------------------------------------------
| 301 | JAGUARA--4GR |  1  |   1.010   |  -27.46  | 300.000  | -87.598  |  0.000   |  0.000   |  0.000   |
----------------------------------------------------------------------------------------------------------
| 302 | N.PONTE--3GR |  1  |   1.020   |  -24.99  | 400.000  | -80.926  |  0.000   |  0.000   |  0.000   |
----------------------------------------------------------------------------------------------------------
| 303 | S.SIMAO--4GR |  1  |   1.020   |  -30.95  | 200.000  | -200.742 |  0.000   |  0.000   |  0.000   |
----------------------------------------------------------------------------------------------------------

|          BARRA           |         TENSAO       |        GERACAO      |         CARGA       |   SHUNT  |
| NUM |     NOME     |  T  |    MOD    |    ANG   |    MW    |   MVAr   |    MW    |   MVAr   |    MVAr  |
----------------------------------------------------------------------------------------------------------
| 305 | V.GRANDE-4GR |  1  |   1.000   |  -31.33  | 300.000  |  -0.881  |  0.000   |  0.000   |  0.000   |
----------------------------------------------------------------------------------------------------------
| 320 | EMBORCAC-500 |  0  |   1.037   |  -29.70  |  0.000   |  0.000   |  0.000   |  0.000   |  0.000   |
----------------------------------------------------------------------------------------------------------
| 325 | JAGUARA--500 |  0  |   1.036   |  -31.78  |  -0.000  |  0.000   |  0.000   |  0.000   |  0.000   |
----------------------------------------------------------------------------------------------------------
| 326 | JAGUARA--345 |  0  |   1.019   |  -35.36  |  0.000   |  0.000   | 294.989  | 111.967  |  0.000   |
----------------------------------------------------------------------------------------------------------
| 360 | NPONTE---500 |  0  |   1.038   |  -29.18  |  -0.000  |  0.000   |  0.000   |  0.000   |  0.000   |
----------------------------------------------------------------------------------------------------------
| 370 | SSIMAO---500 |  0  |   1.041   |  -32.09  |  0.000   |  0.000   |  0.000   |  0.000   |  0.000   |
----------------------------------------------------------------------------------------------------------
| 396 | VGRANDE--345 |  0  |   1.027   |  -35.10  |  -0.000  |  0.000   |  0.000   |  0.000   |  0.000   |
----------------------------------------------------------------------------------------------------------
| 500 | A.VERMEL-4GR |  1  |   1.020   |  -29.39  | 800.000  | -10.997  |  0.000   |  0.000   |  0.000   |
----------------------------------------------------------------------------------------------------------
| 535 | AVERMELHA500 |  0  |   1.024   |  -33.89  |  -0.000  |  0.000   |  0.000   |  0.000   |  0.000   |
----------------------------------------------------------------------------------------------------------
| 536 | AVERMELH-440 |  0  |   1.011   |  -36.97  |  0.000   |  0.000   | 753.622  | 161.490  |  0.000   |
----------------------------------------------------------------------------------------------------------
| 1503 | ITAJUBA--500 |  0  |   0.955   |  -68.45  |  -0.000  |  0.000   |  0.000   |  0.000   |  0.000   |
----------------------------------------------------------------------------------------------------------
| 1504 | ITAJUBA--138 |  0  |   0.914   |  -73.78  |  0.000   |  0.000   | 156.107  |  67.826  |  0.000   |
----------------------------------------------------------------------------------------------------------



vv relatorio de barras vv area 3 vv

|          BARRA           |         TENSAO       |        GERACAO      |         CARGA       |   SHUNT  |
| NUM |     NOME     |  T  |    MOD    |    ANG   |    MW    |   MVAr   |    MW    |   MVAr   |    MVAr  |
----------------------------------------------------------------------------------------------------------
| 21  | MANSO----3GR |  1  |   1.000   | -102.45  | 140.000  |  14.731  |  0.000   |  0.000   |  0.000   |
----------------------------------------------------------------------------------------------------------
| 231 | R.VERDE-230  |  0  |   0.824   |  -65.39  |  -0.000  |  0.000   |  96.571  |  34.344  |  0.000   |
----------------------------------------------------------------------------------------------------------
| 4501 | B.PEIXE--230 |  0  |   0.834   |  -88.76  |  0.000   |  0.000   |  33.805  |  7.644   | -31.283  |
----------------------------------------------------------------------------------------------------------
| 4521 | ITIQUIRA-230 |  0  |   0.942   | -101.89  |  -0.000  |  0.000   |  0.000   |  0.000   |  0.000   |
----------------------------------------------------------------------------------------------------------
| 4522 | RONDONOP-230 |  0  |   0.907   | -104.08  |  0.000   |  0.000   |  0.000   |  0.000   | -16.456  |
----------------------------------------------------------------------------------------------------------

|          BARRA           |         TENSAO       |        GERACAO      |         CARGA       |   SHUNT  |
| NUM |     NOME     |  T  |    MOD    |    ANG   |    MW    |   MVAr   |    MW    |   MVAr   |    MVAr  |
----------------------------------------------------------------------------------------------------------
| 4523 | ITIQUIR--2GR |  1  |   1.010   |  -95.64  |  50.000  |  35.747  |  0.000   |  0.000   |  0.000   |
----------------------------------------------------------------------------------------------------------
| 4530 | COXIPO-CE-12 |  1  |   1.020   | -112.83  |  0.000   |  20.412  |  0.000   |  0.000   |  0.000   |
----------------------------------------------------------------------------------------------------------
| 4532 |  COXIPO-230  |  0  |   0.991   | -112.83  |  0.000   |  -0.000  |  0.000   |  0.000   |  0.000   |
----------------------------------------------------------------------------------------------------------
| 4533 |  COXIPO-138  |  0  |   0.982   | -113.50  |  0.000   |  0.000   |  81.176  |  17.333  |  0.000   |
----------------------------------------------------------------------------------------------------------
| 4542 |  NOBRES-230  |  0  |   0.979   | -112.65  |  -0.000  |  0.000   |  0.000   |  0.000   |  0.000   |
----------------------------------------------------------------------------------------------------------
| 4552 | N.MUTUM-230  |  0  |   0.929   | -121.76  |  -0.000  |  0.000   |  13.565  |  1.292   | -17.255  |
----------------------------------------------------------------------------------------------------------
| 4562 | SORRISO-230  |  0  |   0.904   | -132.33  |  0.000   |  0.000   |  25.623  |  7.967   |  0.000   |
----------------------------------------------------------------------------------------------------------
| 4572 | LUCAS-RV230  |  0  |   0.911   | -128.50  |  0.000   |  0.000   |  19.379  |  6.890   |  0.000   |
----------------------------------------------------------------------------------------------------------
| 4582 |  SINOP-230   |  0  |   0.902   | -136.09  |  0.000   |  0.000   |  70.518  |  17.979  |  24.435  |
----------------------------------------------------------------------------------------------------------
| 4592 |  MANSO-230   |  0  |   0.995   | -107.62  |  -0.000  |  0.000   |  0.000   |  0.000   |  0.000   |
----------------------------------------------------------------------------------------------------------

|          BARRA           |         TENSAO       |        GERACAO      |         CARGA       |   SHUNT  |
| NUM |     NOME     |  T  |    MOD    |    ANG   |    MW    |   MVAr   |    MW    |   MVAr   |    MVAr  |
----------------------------------------------------------------------------------------------------------
| 4596 | CBA--GAS-2GR |  1  |   1.000   | -108.44  | 230.000  |  58.723  |  0.000   |  0.000   |  0.000   |
----------------------------------------------------------------------------------------------------------
| 4623 | RONDONOP-138 |  0  |   0.896   | -108.24  |  0.000   |  0.000   | 138.021  |  43.882  |  0.000   |
----------------------------------------------------------------------------------------------------------
| 4703 |  CUIABA-138  |  0  |   0.969   | -114.78  |  0.000   |  0.000   | 196.049  |  32.029  |  0.000   |
----------------------------------------------------------------------------------------------------------
| 4804 | GUAPORE--2GR |  1  |   1.000   | -116.19  |  50.000  |  2.495   |  0.000   |  0.000   |  0.000   |
----------------------------------------------------------------------------------------------------------
| 4805 | GUAPORE--138 |  0  |   0.999   | -120.01  |  0.000   |  -0.000  |  0.000   |  0.000   |  0.000   |
----------------------------------------------------------------------------------------------------------
| 4807 |  JAURU-138   |  0  |   0.991   | -121.18  |  0.000   |  0.000   | 138.774  |  39.081  |  0.000   |
----------------------------------------------------------------------------------------------------------
| 4862 |  JAURU-230   |  0  |   1.007   | -119.11  |  0.000   |  -0.000  |  0.000   |  0.000   | -30.396  |
----------------------------------------------------------------------------------------------------------



vv relatorio de barras vv area 2 vv

|          BARRA           |         TENSAO       |        GERACAO      |         CARGA       |   SHUNT  |
| NUM |     NOME     |  T  |    MOD    |    ANG   |    MW    |   MVAr   |    MW    |   MVAr   |    MVAr  |
----------------------------------------------------------------------------------------------------------

|          BARRA           |         TENSAO       |        GERACAO      |         CARGA       |   SHUNT  |
| NUM |     NOME     |  T  |    MOD    |    ANG   |    MW    |   MVAr   |    MW    |   MVAr   |    MVAr  |
----------------------------------------------------------------------------------------------------------
| 800 | GBMUNHOZ-2GR |  1  |   1.020   |  -33.87  | 1100.000 | 202.724  |  0.000   |  0.000   |  0.000   |
----------------------------------------------------------------------------------------------------------
| 808 | SCAXIAS--4GR |  1  |   1.020   |  -23.96  | 1150.000 | 150.070  |  0.000   |  0.000   |  0.000   |
----------------------------------------------------------------------------------------------------------
| 810 | SSEGREDO-4GR |  1  |   1.020   |  -31.04  | 1200.000 | -11.604  |  0.000   |  0.000   |  0.000   |
----------------------------------------------------------------------------------------------------------
| 814 | BATEIAS--230 |  0  |   0.969   |  -63.67  |  0.000   |  0.000   | 791.734  | 205.631  |  0.000   |
----------------------------------------------------------------------------------------------------------
| 824 | GBMUNHOZ-500 |  0  |   1.027   |  -44.27  |  -0.000  |  0.000   |  0.000   |  0.000   |  0.000   |
----------------------------------------------------------------------------------------------------------
| 834 | S.MATEUS-230 |  0  |   0.970   |  -55.74  |  -0.000  |  0.000   |  14.426  |  4.522   |  0.000   |
----------------------------------------------------------------------------------------------------------
| 839 | CASCAVEL-230 |  0  |   0.993   |  -34.30  |  -0.000  |  -0.000  |  0.000   |  0.000   |  0.000   |
----------------------------------------------------------------------------------------------------------
| 840 | CASCAVEL-138 |  0  |   0.979   |  -37.56  |  0.000   |  0.000   | 171.180  |  38.758  |  0.000   |
----------------------------------------------------------------------------------------------------------
| 848 | FCHOPIM--138 |  0  |   0.993   |  -33.53  |  0.000   |  0.000   | 101.201  |  19.379  |  0.000   |
----------------------------------------------------------------------------------------------------------
| 856 | SEGREDO--500 |  0  |   1.029   |  -37.93  |  -0.000  |  0.000   |  0.000   |  0.000   |  0.000   |
----------------------------------------------------------------------------------------------------------

|          BARRA           |         TENSAO       |        GERACAO      |         CARGA       |   SHUNT  |
| NUM |     NOME     |  T  |    MOD    |    ANG   |    MW    |   MVAr   |    MW    |   MVAr   |    MVAr  |
----------------------------------------------------------------------------------------------------------
| 895 | BATEIAS--500 |  0  |   1.018   |  -61.12  |  -0.000  |  0.000   |  0.000   |  0.000   |  0.000   |
----------------------------------------------------------------------------------------------------------
| 896 | CASCAVELO500 |  0  |   1.023   |  -31.90  |  -0.000  |  -0.000  |  0.000   |  0.000   |  0.000   |
----------------------------------------------------------------------------------------------------------
| 897 | SCAXIAS--500 |  0  |   1.036   |  -30.49  |  -0.000  |  0.000   |  0.000   |  0.000   |  0.000   |
----------------------------------------------------------------------------------------------------------
| 898 | FCHOPIM--230 |  0  |   1.008   |  -29.85  |  -0.000  |  -0.000  |  0.000   |  0.000   |  0.000   |
----------------------------------------------------------------------------------------------------------
| 904 | ITA------4GR |  1  |   1.020   |  -43.06  | 700.000  | -103.180 |  0.000   |  0.000   |  0.000   |
----------------------------------------------------------------------------------------------------------
| 915 | MACHADIN-2GR |  1  |   1.020   |  -40.72  | 700.000  | -33.656  |  0.000   |  0.000   |  0.000   |
----------------------------------------------------------------------------------------------------------
| 919 | SOSOR1A4-4GR |  1  |   1.000   |  -21.88  | 700.000  | 107.675  |  0.000   |  0.000   |  0.000   |
----------------------------------------------------------------------------------------------------------
| 925 | SSANTIAG-3GR |  1  |   1.020   |  -27.38  | 950.000  | 111.564  |  0.000   |  0.000   |  0.000   |
----------------------------------------------------------------------------------------------------------
| 933 | AREIA----500 |  0  |   1.027   |  -44.64  |  -0.000  |  0.000   |  0.000   |  0.000   |  0.000   |
----------------------------------------------------------------------------------------------------------
| 934 | AREIA----230 |  0  |   0.988   |  -45.01  |  0.000   |  0.000   | 255.155  |  63.520  |  0.000   |
----------------------------------------------------------------------------------------------------------

|          BARRA           |         TENSAO       |        GERACAO      |         CARGA       |   SHUNT  |
| NUM |     NOME     |  T  |    MOD    |    ANG   |    MW    |   MVAr   |    MW    |   MVAr   |    MVAr  |
----------------------------------------------------------------------------------------------------------
| 938 | BLUMENAU-500 |  0  |   1.013   |  -65.03  |  -0.000  |  0.000   |  0.000   |  0.000   |  0.000   |
----------------------------------------------------------------------------------------------------------
| 939 | BLUMENAU-230 |  0  |   0.968   |  -67.75  |  0.000   |  0.000   | 1237.017 |  57.125  |  0.000   |
----------------------------------------------------------------------------------------------------------
| 955 | CNOVOS---500 |  0  |   1.038   |  -51.51  |  -0.000  |  0.000   |  0.000   |  0.000   |  0.000   |
----------------------------------------------------------------------------------------------------------
| 959 | CURITIBA-500 |  0  |   1.006   |  -61.48  |  -0.000  |  0.000   |  0.000   |  0.000   | 101.154  |
----------------------------------------------------------------------------------------------------------
| 960 | CURITIBA-230 |  0  |   0.966   |  -64.46  |  0.000   |  0.000   | 909.407  | 505.035  |  0.000   |
----------------------------------------------------------------------------------------------------------
| 964 | CAXIAS---500 |  0  |   1.004   |  -60.18  |  -0.000  |  0.000   |  0.000   |  0.000   |  0.000   |
----------------------------------------------------------------------------------------------------------
| 965 | CAXIAS---230 |  0  |   0.970   |  -63.02  |  0.000   |  0.000   | 813.481  |  60.548  |  0.000   |
----------------------------------------------------------------------------------------------------------
| 976 | GRAVATAI-500 |  0  |   0.974   |  -63.34  |  -0.000  |  0.000   |  0.000   |  0.000   |  0.000   |
----------------------------------------------------------------------------------------------------------
| 995 | ITA------500 |  0  |   1.035   |  -47.45  |  -0.000  |  0.000   |  0.000   |  0.000   |  0.000   |
----------------------------------------------------------------------------------------------------------
| 1015 | JOINVILLE230 |  0  |   0.968   |  -67.39  |  0.000   |  -0.000  |  75.362  |  2.153   |  0.000   |
----------------------------------------------------------------------------------------------------------

|          BARRA           |         TENSAO       |        GERACAO      |         CARGA       |   SHUNT  |
| NUM |     NOME     |  T  |    MOD    |    ANG   |    MW    |   MVAr   |    MW    |   MVAr   |    MVAr  |
----------------------------------------------------------------------------------------------------------
| 1030 | MACHADIN-500 |  0  |   1.037   |  -48.58  |  -0.000  |  0.000   |  0.000   |  0.000   |  0.000   |
----------------------------------------------------------------------------------------------------------
| 1047 | SOSORIO--230 |  0  |   1.014   |  -28.80  |  -0.000  |  0.000   |  0.000   |  0.000   |  0.000   |
----------------------------------------------------------------------------------------------------------
| 1060 | SSANTIAG-500 |  0  |   1.038   |  -35.38  |  -0.000  |  0.000   |  0.000   |  0.000   |  0.000   |
----------------------------------------------------------------------------------------------------------
| 1210 | GRAVATAI-230 |  0  |   0.961   |  -66.55  |  0.000   |  0.000   | 1322.069 | 457.556  |  0.000   |
----------------------------------------------------------------------------------------------------------
| 2458 | CASCAVEL-230 |  0  |   0.994   |  -34.52  |  0.000   |  0.000   | 433.871  | 135.652  |  0.000   |
----------------------------------------------------------------------------------------------------------



fim do relatorio do sistema 107barra